Version 4
SHEET 1 880 680
WIRE 32 -48 -320 -48
WIRE 32 -32 32 -48
WIRE -80 64 -112 64
WIRE 32 64 32 48
WIRE 32 64 0 64
WIRE 112 64 32 64
WIRE 160 64 112 64
WIRE 32 80 32 64
WIRE 112 96 112 64
WIRE 32 176 32 160
WIRE 112 176 112 160
WIRE 112 176 32 176
WIRE 112 192 112 176
WIRE -320 224 -320 -48
WIRE 256 224 -320 224
WIRE -176 256 -192 256
WIRE -112 256 -112 64
WIRE 176 256 -112 256
WIRE 256 272 256 224
WIRE 224 288 -128 288
WIRE 336 304 288 304
WIRE 368 304 336 304
WIRE 464 304 432 304
WIRE 176 320 176 256
WIRE 224 320 176 320
WIRE -128 368 -128 288
WIRE -48 368 -128 368
WIRE 336 368 336 304
WIRE 336 368 32 368
WIRE 464 368 464 304
WIRE -128 384 -128 368
WIRE -320 448 -320 224
WIRE -192 448 -192 256
WIRE -128 480 -128 464
WIRE 160 480 160 64
WIRE 160 480 -128 480
WIRE -320 560 -320 528
WIRE -192 560 -192 528
WIRE -192 560 -320 560
WIRE 256 560 256 336
WIRE 256 560 -192 560
WIRE 464 560 464 448
WIRE 464 560 256 560
WIRE 256 576 256 560
FLAG 112 192 0
FLAG 464 304 Vout
FLAG -192 256 Vin
FLAG 256 576 0
SYMBOL NewOpamps\\LM4562 256 240 R0
SYMATTR InstName U1
SYMBOL Overige\ componenten\\voltage -192 432 R0
WINDOW 123 24 132 Left 2
WINDOW 39 0 0 Left 2
SYMATTR Value2 AC 0.01
SYMATTR InstName Vin
SYMATTR Value SINE(0 0.01 100)
SYMBOL res -96 80 R270
WINDOW 0 32 56 VTop 2
WINDOW 3 0 56 VBottom 2
SYMATTR InstName R1
SYMATTR Value 100k
SYMBOL cap -176 272 R270
WINDOW 0 32 32 VTop 2
WINDOW 3 0 32 VBottom 2
SYMATTR InstName C1
SYMATTR Value 1µ
SYMBOL res 16 -48 R0
SYMATTR InstName R3
SYMATTR Value 1k
SYMBOL cap 96 96 R0
SYMATTR InstName C2
SYMATTR Value 1µ
SYMBOL Overige\ componenten\\voltage -320 432 R0
WINDOW 123 0 0 Left 2
WINDOW 39 0 0 Left 2
SYMATTR InstName Vamp
SYMATTR Value 10
SYMBOL res -144 368 R0
SYMATTR InstName R2
SYMATTR Value 1k
SYMBOL res -64 384 R270
WINDOW 0 32 56 VTop 2
WINDOW 3 0 56 VBottom 2
SYMATTR InstName R5
SYMATTR Value 100k
SYMBOL res 16 64 R0
SYMATTR InstName R4
SYMATTR Value 1k
SYMBOL cap 368 320 R270
WINDOW 0 32 32 VTop 2
WINDOW 3 0 32 VBottom 2
SYMATTR InstName C4
SYMATTR Value 1µ
SYMATTR SpiceLine Rser=0.1
SYMBOL res 448 352 R0
SYMATTR InstName R8
SYMATTR Value 5k
TEXT -192 616 Left 2 !;op
TEXT -128 616 Left 2 !.tran 0 0.1 0 0.01
TEXT -464 616 Left 2 !;ac dec 100000 0.1 40k
