<<<<<<< HEAD
* C:\Gedeeld\Project\Git\Normalization\LTspice\Test.asc
V1 Vin 0 SINE(0 1.1 100) AC 1
V2 Vdd 0 10
R1 N001 Vin 1000
R2 Vout N001 100
V3 0 N002 10
XU1 N001 0 Vout Vdd N002 TS92X
;ac oct 1000 0.1 100Meg
.tran 0 0.1 0 0.01 startup
.lib C:\Gedeeld\Project\Git\Normalization\sub\NewOpamps\ts92x_series.lib
=======
* D:\GitHub\ouisician\Normalization\LTspice\Test.asc
V1 Vin 0 SINE(0 0.3 100) AC 0.5
V2 Vdd 0 10
R1 N001 Vin 10
R2 Vout N001 100
V3 0 N002 10
XU1 0 N001 Vdd N002 Vout LM4562
.tran 0 0.1 0 0.01
.lib NewOpamps\LM4562.lib
>>>>>>> 91b562f12c6223f61629e726d601d76402d0d600
.backanno
.end
