Version 4
SHEET 1 1656 680
WIRE 816 -32 800 -32
WIRE 1280 -32 816 -32
WIRE -224 0 -240 0
WIRE 240 0 -224 0
WIRE 800 0 800 -32
WIRE -240 32 -240 0
WIRE 976 48 960 48
WIRE 1040 48 976 48
WIRE 1232 48 1120 48
WIRE 1456 48 1232 48
WIRE 1568 48 1536 48
WIRE 1584 48 1568 48
WIRE -64 80 -80 80
WIRE 0 80 -64 80
WIRE 192 80 80 80
WIRE 416 80 192 80
WIRE 528 80 496 80
WIRE 544 80 528 80
WIRE 1280 96 1280 -32
WIRE 1232 112 1232 48
WIRE 1248 112 1232 112
WIRE 240 128 240 0
WIRE 800 128 800 80
WIRE 960 128 800 128
WIRE 1088 128 960 128
WIRE 1200 128 1088 128
WIRE 1568 128 1568 48
WIRE 1568 128 1312 128
WIRE 192 144 192 80
WIRE 208 144 192 144
WIRE 1248 144 1232 144
WIRE -240 160 -240 112
WIRE -80 160 -240 160
WIRE 48 160 -80 160
WIRE 160 160 48 160
WIRE 528 160 528 80
WIRE 528 160 272 160
WIRE 1200 160 1200 128
WIRE 1232 160 1232 144
WIRE 1232 160 1200 160
WIRE 208 176 192 176
WIRE 160 192 160 160
WIRE 192 192 192 176
WIRE 192 192 160 192
WIRE 800 224 800 208
WIRE 1280 224 1280 160
WIRE 1280 224 800 224
WIRE -240 256 -240 240
WIRE 240 256 240 192
WIRE 240 256 -240 256
FLAG 544 80 Vout
FLAG -64 80 Vin
FLAG -224 0 Vdd
FLAG 48 160 0
FLAG 1584 48 Vout
FLAG 976 48 Vin
FLAG 816 -32 Vdd
FLAG 1088 128 0
SYMBOL voltage -80 64 R0
WINDOW 123 24 124 Left 2
WINDOW 39 0 0 Left 2
SYMATTR Value2 AC 0.1
SYMATTR InstName V1
SYMATTR Value SINE(0 0.1 100)
SYMBOL voltage -240 16 R0
SYMATTR InstName V2
SYMATTR Value 5
SYMBOL res 96 64 R90
WINDOW 0 0 56 VBottom 2
WINDOW 3 32 56 VTop 2
SYMATTR InstName R1
SYMATTR Value 100
SYMBOL res 512 64 R90
WINDOW 0 0 56 VBottom 2
WINDOW 3 32 56 VTop 2
SYMATTR InstName R2
SYMATTR Value 100
SYMBOL voltage -240 144 R0
SYMATTR InstName V3
SYMATTR Value 5
SYMBOL NewOpamps\\LM741 240 96 R0
SYMATTR InstName U2
SYMBOL voltage 960 32 R0
WINDOW 123 24 124 Left 2
WINDOW 39 0 0 Left 2
SYMATTR Value2 AC 0.1
SYMATTR InstName V4
SYMATTR Value SINE(0 0.1 100)
SYMBOL voltage 800 -16 R0
SYMATTR InstName V5
SYMATTR Value 5
SYMBOL res 1136 32 R90
WINDOW 0 0 56 VBottom 2
WINDOW 3 32 56 VTop 2
SYMATTR InstName R3
SYMATTR Value 100
SYMBOL res 1552 32 R90
WINDOW 0 0 56 VBottom 2
WINDOW 3 32 56 VTop 2
SYMATTR InstName R4
SYMATTR Value 100
SYMBOL voltage 800 112 R0
SYMATTR InstName V6
SYMATTR Value 5
SYMBOL NewOpamps\\LM741 1280 64 R0
SYMATTR InstName U1
TEXT -152 -24 Left 2 !.tran 0 100 0.1 10 startup
TEXT 888 -56 Left 2 !.tran 0 100 0.1 10 startup
