Version 4
SHEET 1 1656 680
WIRE -224 0 -240 0
WIRE 288 0 -224 0
WIRE -240 32 -240 0
WIRE -64 80 -80 80
WIRE 0 80 -64 80
WIRE 208 80 80 80
WIRE 416 80 208 80
WIRE 528 80 496 80
WIRE 544 80 528 80
WIRE 288 112 288 0
WIRE 208 128 208 80
WIRE 256 128 208 128
WIRE 528 144 528 80
WIRE 528 144 320 144
WIRE -240 160 -240 112
WIRE -80 160 -240 160
WIRE 48 160 -80 160
WIRE 256 160 48 160
WIRE -240 256 -240 240
WIRE 288 256 288 176
WIRE 288 256 -240 256
FLAG 544 80 Vout
FLAG -64 80 Vin
FLAG -224 0 Vdd
FLAG 48 160 0
SYMBOL voltage -80 64 R0
WINDOW 123 24 124 Left 2
WINDOW 39 0 0 Left 2
SYMATTR Value2 AC 1
SYMATTR InstName V1
SYMATTR Value SINE(0 0.1 100)
SYMBOL voltage -240 16 R0
WINDOW 123 0 0 Left 2
WINDOW 39 0 0 Left 2
SYMATTR InstName V2
SYMATTR Value 5
SYMBOL res 96 64 R90
WINDOW 0 0 56 VBottom 2
WINDOW 3 32 56 VTop 2
SYMATTR InstName R1
SYMATTR Value 100
SYMBOL res 512 64 R90
WINDOW 0 0 56 VBottom 2
WINDOW 3 32 56 VTop 2
SYMATTR InstName R2
SYMATTR Value 1k
SYMBOL voltage -240 144 R0
WINDOW 123 0 0 Left 2
WINDOW 39 0 0 Left 2
SYMATTR InstName V3
SYMATTR Value 5
SYMBOL NewOpamps\\LM4562 288 80 R0
SYMATTR InstName U1
TEXT -152 -24 Left 2 !;ac oct 1000 0.1 100Meg
TEXT 304 -16 Left 2 !.tran 0 0.1 0 0.01 startup
