Version 4
SHEET 1 880 680
WIRE -224 0 -240 0
WIRE 128 0 -224 0
WIRE -240 32 -240 0
WIRE 96 32 80 32
WIRE -64 80 -80 80
WIRE 0 80 -64 80
WIRE 80 80 80 32
WIRE 128 80 128 0
WIRE 80 96 80 80
WIRE 96 96 80 96
WIRE 176 112 176 32
WIRE 176 112 160 112
WIRE 208 112 176 112
WIRE 240 112 208 112
WIRE 96 128 64 128
WIRE -240 160 -240 112
WIRE -80 160 -240 160
WIRE 48 160 -80 160
WIRE 64 160 64 128
WIRE 64 160 48 160
WIRE 128 240 128 144
WIRE 128 240 -240 240
FLAG 208 112 Vout
FLAG -64 80 Vin
FLAG -224 0 Vdd
FLAG 48 160 0
SYMBOL LM741\\LM741 128 48 R0
SYMATTR InstName U1
SYMBOL voltage -80 64 R0
WINDOW 123 24 124 Left 2
WINDOW 39 0 0 Left 2
SYMATTR InstName V1
SYMATTR Value 0
SYMATTR Value2 AC 0.1
SYMBOL voltage -240 16 R0
SYMATTR InstName V2
SYMATTR Value 5
SYMBOL res 96 64 R90
WINDOW 0 0 56 VBottom 2
WINDOW 3 32 56 VTop 2
SYMATTR InstName R1
SYMATTR Value 100
SYMBOL res 192 16 R90
WINDOW 0 0 56 VBottom 2
WINDOW 3 32 56 VTop 2
SYMATTR InstName R2
SYMATTR Value 100
SYMBOL voltage -240 144 R0
SYMATTR InstName V3
SYMATTR Value 5
TEXT -152 -24 Left 2 !.ac oct 10000 0.1 1000Meg
