Version 4
SHEET 1 880 680
SYMBOL cap 160 80 R0
SYMATTR InstName C1
